192
Lattice="16.6311514935076 0.0 0.0 8.3155757467538 14.402999687565085 0.0 0.0 0.0 31.302852220893335" Properties=species:S:1:pos:R:3:tags:I:1 pbc="T T F"
Pt      -0.00000000       1.60033330      10.00000000        5
Pt       2.77185858       1.60033330      10.00000000        5
Pt       5.54371716       1.60033330      10.00000000        5
Pt       8.31557575       1.60033330      10.00000000        5
Pt      11.08743433       1.60033330      10.00000000        5
Pt      13.85929291       1.60033330      10.00000000        5
Pt       1.38592929       4.00083325      10.00000000        5
Pt       4.15778787       4.00083325      10.00000000        5
Pt       6.92964646       4.00083325      10.00000000        5
Pt       9.70150504       4.00083325      10.00000000        5
Pt      12.47336362       4.00083325      10.00000000        5
Pt      15.24522220       4.00083325      10.00000000        5
Pt       2.77185858       6.40133319      10.00000000        5
Pt       5.54371716       6.40133319      10.00000000        5
Pt       8.31557575       6.40133319      10.00000000        5
Pt      11.08743433       6.40133319      10.00000000        5
Pt      13.85929291       6.40133319      10.00000000        5
Pt      16.63115149       6.40133319      10.00000000        5
Pt       4.15778787       8.80183314      10.00000000        5
Pt       6.92964646       8.80183314      10.00000000        5
Pt       9.70150504       8.80183314      10.00000000        5
Pt      12.47336362       8.80183314      10.00000000        5
Pt      15.24522220       8.80183314      10.00000000        5
Pt      18.01708078       8.80183314      10.00000000        5
Pt       5.54371716      11.20233309      10.00000000        5
Pt       8.31557575      11.20233309      10.00000000        5
Pt      11.08743433      11.20233309      10.00000000        5
Pt      13.85929291      11.20233309      10.00000000        5
Pt      16.63115149      11.20233309      10.00000000        5
Pt      19.40301008      11.20233309      10.00000000        5
Pt       6.92964646      13.60283304      10.00000000        5
Pt       9.70150504      13.60283304      10.00000000        5
Pt      12.47336362      13.60283304      10.00000000        5
Pt      15.24522220      13.60283304      10.00000000        5
Pt      18.01708078      13.60283304      10.00000000        5
Pt      20.78893937      13.60283304      10.00000000        5
Pt       0.00000000       0.00000000      12.26321306        4
Pt       2.77185858       0.00000000      12.26321306        4
Pt       5.54371716       0.00000000      12.26321306        4
Pt       8.31557575       0.00000000      12.26321306        4
Pt      11.08743433       0.00000000      12.26321306        4
Pt      13.85929291       0.00000000      12.26321306        4
Pt       1.38592929       2.40049995      12.26321306        4
Pt       4.15778787       2.40049995      12.26321306        4
Pt       6.92964646       2.40049995      12.26321306        4
Pt       9.70150504       2.40049995      12.26321306        4
Pt      12.47336362       2.40049995      12.26321306        4
Pt      15.24522220       2.40049995      12.26321306        4
Pt       2.77185858       4.80099990      12.26321306        4
Pt       5.54371716       4.80099990      12.26321306        4
Pt       8.31557575       4.80099990      12.26321306        4
Pt      11.08743433       4.80099990      12.26321306        4
Pt      13.85929291       4.80099990      12.26321306        4
Pt      16.63115149       4.80099990      12.26321306        4
Pt       4.15778787       7.20149984      12.26321306        4
Pt       6.92964646       7.20149984      12.26321306        4
Pt       9.70150504       7.20149984      12.26321306        4
Pt      12.47336362       7.20149984      12.26321306        4
Pt      15.24522220       7.20149984      12.26321306        4
Pt      18.01708078       7.20149984      12.26321306        4
Pt       5.54371716       9.60199979      12.26321306        4
Pt       8.31557575       9.60199979      12.26321306        4
Pt      11.08743433       9.60199979      12.26321306        4
Pt      13.85929291       9.60199979      12.26321306        4
Pt      16.63115149       9.60199979      12.26321306        4
Pt      19.40301008       9.60199979      12.26321306        4
Pt       6.92964646      12.00249974      12.26321306        4
Pt       9.70150504      12.00249974      12.26321306        4
Pt      12.47336362      12.00249974      12.26321306        4
Pt      15.24522220      12.00249974      12.26321306        4
Pt      18.01708078      12.00249974      12.26321306        4
Pt      20.78893937      12.00249974      12.26321306        4
Pt       1.38592929       0.80016665      14.52642611        3
Pt       4.15778787       0.80016665      14.52642611        3
Pt       6.92964646       0.80016665      14.52642611        3
Pt       9.70150504       0.80016665      14.52642611        3
Pt      12.47336362       0.80016665      14.52642611        3
Pt      15.24522220       0.80016665      14.52642611        3
Pt       2.77185858       3.20066660      14.52642611        3
Pt       5.54371716       3.20066660      14.52642611        3
Pt       8.31557575       3.20066660      14.52642611        3
Pt      11.08743433       3.20066660      14.52642611        3
Pt      13.85929291       3.20066660      14.52642611        3
Pt      16.63115149       3.20066660      14.52642611        3
Pt       4.15778787       5.60116655      14.52642611        3
Pt       6.92964646       5.60116655      14.52642611        3
Pt       9.70150504       5.60116655      14.52642611        3
Pt      12.47336362       5.60116655      14.52642611        3
Pt      15.24522220       5.60116655      14.52642611        3
Pt      18.01708078       5.60116655      14.52642611        3
Pt       5.54371716       8.00166649      14.52642611        3
Pt       8.31557575       8.00166649      14.52642611        3
Pt      11.08743433       8.00166649      14.52642611        3
Pt      13.85929291       8.00166649      14.52642611        3
Pt      16.63115149       8.00166649      14.52642611        3
Pt      19.40301008       8.00166649      14.52642611        3
Pt       6.92964646      10.40216644      14.52642611        3
Pt       9.70150504      10.40216644      14.52642611        3
Pt      12.47336362      10.40216644      14.52642611        3
Pt      15.24522220      10.40216644      14.52642611        3
Pt      18.01708078      10.40216644      14.52642611        3
Pt      20.78893937      10.40216644      14.52642611        3
Pt       8.31557575      12.80266639      14.52642611        3
Pt      11.08743433      12.80266639      14.52642611        3
Pt      13.85929291      12.80266639      14.52642611        3
Pt      16.63115149      12.80266639      14.52642611        3
Pt      19.40301008      12.80266639      14.52642611        3
Pt      22.17486866      12.80266639      14.52642611        3
Pt      -0.00000000       1.60033330      16.78963917        2
Pt       2.77185858       1.60033330      16.78963917        2
Pt       5.54371716       1.60033330      16.78963917        2
Pt       8.31557575       1.60033330      16.78963917        2
Pt      11.08743433       1.60033330      16.78963917        2
Pt      13.85929291       1.60033330      16.78963917        2
Pt       1.38592929       4.00083325      16.78963917        2
Pt       4.15778787       4.00083325      16.78963917        2
Pt       6.92964646       4.00083325      16.78963917        2
Pt       9.70150504       4.00083325      16.78963917        2
Pt      12.47336362       4.00083325      16.78963917        2
Pt      15.24522220       4.00083325      16.78963917        2
Pt       2.77185858       6.40133319      16.78963917        2
Pt       5.54371716       6.40133319      16.78963917        2
Pt       8.31557575       6.40133319      16.78963917        2
Pt      11.08743433       6.40133319      16.78963917        2
Pt      13.85929291       6.40133319      16.78963917        2
Pt      16.63115149       6.40133319      16.78963917        2
Pt       4.15778787       8.80183314      16.78963917        2
Pt       6.92964646       8.80183314      16.78963917        2
Pt       9.70150504       8.80183314      16.78963917        2
Pt      12.47336362       8.80183314      16.78963917        2
Pt      15.24522220       8.80183314      16.78963917        2
Pt      18.01708078       8.80183314      16.78963917        2
Pt       5.54371716      11.20233309      16.78963917        2
Pt       8.31557575      11.20233309      16.78963917        2
Pt      11.08743433      11.20233309      16.78963917        2
Pt      13.85929291      11.20233309      16.78963917        2
Pt      16.63115149      11.20233309      16.78963917        2
Pt      19.40301008      11.20233309      16.78963917        2
Pt       6.92964646      13.60283304      16.78963917        2
Pt       9.70150504      13.60283304      16.78963917        2
Pt      12.47336362      13.60283304      16.78963917        2
Pt      15.24522220      13.60283304      16.78963917        2
Pt      18.01708078      13.60283304      16.78963917        2
Pt      20.78893937      13.60283304      16.78963917        2
Pt       0.00000000       0.00000000      19.05285222        1
Pt       2.77185858       0.00000000      19.05285222        1
Pt       5.54371716       0.00000000      19.05285222        1
Pt       8.31557575       0.00000000      19.05285222        1
Pt      11.08743433       0.00000000      19.05285222        1
Pt      13.85929291       0.00000000      19.05285222        1
Pt       1.38592929       2.40049995      19.05285222        1
Pt       4.15778787       2.40049995      19.05285222        1
Pt       6.92964646       2.40049995      19.05285222        1
Pt       9.70150504       2.40049995      19.05285222        1
Pt      12.47336362       2.40049995      19.05285222        1
Pt      15.24522220       2.40049995      19.05285222        1
Pt       2.77185858       4.80099990      19.05285222        1
Pt       5.54371716       4.80099990      19.05285222        1
Pt       8.31557575       4.80099990      19.05285222        1
Pt      11.08743433       4.80099990      19.05285222        1
Pt      13.85929291       4.80099990      19.05285222        1
Pt      16.63115149       4.80099990      19.05285222        1
Pt       4.15778787       7.20149984      19.05285222        1
Pt       6.92964646       7.20149984      19.05285222        1
Pt       9.70150504       7.20149984      19.05285222        1
Pt      12.47336362       7.20149984      19.05285222        1
Pt      15.24522220       7.20149984      19.05285222        1
Pt      18.01708078       7.20149984      19.05285222        1
Pt       5.54371716       9.60199979      19.05285222        1
Pt       8.31557575       9.60199979      19.05285222        1
Pt      11.08743433       9.60199979      19.05285222        1
Pt      13.85929291       9.60199979      19.05285222        1
Pt      16.63115149       9.60199979      19.05285222        1
Pt      19.40301008       9.60199979      19.05285222        1
Pt       6.92964646      12.00249974      19.05285222        1
Pt       9.70150504      12.00249974      19.05285222        1
Pt      12.47336362      12.00249974      19.05285222        1
Pt      15.24522220      12.00249974      19.05285222        1
Pt      18.01708078      12.00249974      19.05285222        1
Pt      20.78893937      12.00249974      19.05285222        1
C       10.00000000       7.00000000      21.30285222        0
C       11.20832000       6.30237600      21.30285222        0
C       11.20832000       4.90712800      21.30285222        0
C       10.00000000       4.20950400      21.30285222        0
C        8.79168000       4.90712800      21.30285222        0
C        8.79168000       6.30237600      21.30285222        0
H       10.00000000       8.08711200      21.30285222        0
H       12.14978700       6.84593200      21.30285222        0
H       12.14978700       4.36357200      21.30285222        0
H       10.00000000       3.12239200      21.30285222        0
H        7.85021300       4.36357200      21.30285222        0
H        7.85021300       6.84593200      21.30285222        0
